<?xml version="1.0" encoding="UTF-8"?>

<!-- generated on Rab 17 Nov 2021 04:40:47  by Eclipse SUMO netedit Version 1.8.0
<configuration xmlns:xsi="http://www.w3.org/2001/XMLSchema-instance" xsi:noNamespaceSchemaLocation="http://sumo.dlr.de/xsd/netconvertConfiguration.xsd">

    <input>
        <sumo-net-file value="/home/nugroho/Projects/ML/nugi_rl/nugi_rl/environment/sumo/test1.net.xml"/>
    </input>

    <output>
        <output-file value="/home/nugroho/Projects/ML/nugi_rl/nugi_rl/environment/sumo/test1.net.xml"/>
    </output>

    <processing>
        <geometry.min-radius.fix.railways value="false"/>
        <geometry.max-grade.fix value="false"/>
        <offset.disable-normalization value="true"/>
        <lefthand value="false"/>
    </processing>

    <junctions>
        <no-turnarounds value="true"/>
        <junctions.corner-detail value="5"/>
        <junctions.limit-turn-speed value="5.5"/>
        <rectangular-lane-cut value="false"/>
    </junctions>

    <pedestrian>
        <walkingareas value="false"/>
    </pedestrian>

    <netedit>
        <additional-files value="/home/nugroho/Projects/ML/nugi_rl/nugi_rl/environment/sumo/test1.add.xml"/>
    </netedit>

    <report>
        <aggregate-warnings value="5"/>
    </report>

</configuration>
-->

<additional xmlns:xsi="http://www.w3.org/2001/XMLSchema-instance" xsi:noNamespaceSchemaLocation="http://sumo.dlr.de/xsd/additional_file.xsd">
    <e2Detector id="e2Detector_atas_ke_tengah_0_6" lane="atas_ke_tengah_0" pos="179.60" length="100.00" freq="900.00" file="e2Detector_atas_ke_tengah_0_6.xml"/>
    <e2Detector id="e2Detector_atas_ke_tengah_1_7" lane="atas_ke_tengah_1" pos="179.60" length="100.00" freq="900.00" file="e2Detector_atas_ke_tengah_1_7.xml"/>
    <e2Detector id="e2Detector_bawah_ke_tengah_0_3" lane="bawah_ke_tengah_0" pos="179.60" length="100.00" freq="900.00" file="e2Detector_bawah_ke_tengah_0_3.xml"/>
    <e2Detector id="e2Detector_bawah_ke_tengah_1_2" lane="bawah_ke_tengah_1" pos="179.60" length="100.00" freq="900.00" file="e2Detector_bawah_ke_tengah_1_2.xml"/>
    <e2Detector id="e2Detector_kanan_ke_tengah_0_0" lane="kanan_ke_tengah_0" pos="179.60" length="100.00" freq="900.00" file="e2Detector_kanan_ke_tengah_0_0.xml"/>
    <e2Detector id="e2Detector_kanan_ke_tengah_0_8" lane="kanan_ke_tengah_0" pos="167.42" length="100.00" freq="900.00" file="e2Detector_kanan_ke_tengah_0_8.xml"/>
    <e2Detector id="e2Detector_kanan_ke_tengah_1_1" lane="kanan_ke_tengah_1" pos="179.60" length="100.00" freq="900.00" file="e2Detector_kanan_ke_tengah_1_1.xml"/>
    <e2Detector id="e2Detector_kiri_ke_tengah_0_5" lane="kiri_ke_tengah_0" pos="179.60" length="100.00" freq="900.00" file="e2Detector_kiri_ke_tengah_0_5.xml"/>
    <e2Detector id="e2Detector_kiri_ke_tengah_1_4" lane="kiri_ke_tengah_1" pos="179.60" length="100.00" freq="900.00" file="e2Detector_kiri_ke_tengah_1_4.xml"/>
</additional>
