<routes>
            <vType id="car" accel="0.8" decel="4.5" sigma="0.5" length="5" minGap="2.5" maxSpeed="16.67" guiShape="passenger"/>

            <route id="kiri_kanan" edges="kiri_ke_tengah tengah_ke_kanan"/>
            <route id="kanan_kiri" edges="kanan_ke_tengah tengah_ke_kiri"/>
            <route id="kiri_bawah" edges="kiri_ke_tengah tengah_ke_bawah"/>
            <route id="kanan_bawah" edges="kanan_ke_tengah tengah_ke_bawah"/>
            <route id="bawah_kiri" edges="bawah_ke_tengah tengah_ke_kiri"/>
            <route id="bawah_kanan" edges="bawah_ke_tengah tengah_ke_kanan"/>
            
            <route id="atas_bawah" edges="atas_ke_tengah tengah_ke_bawah"/>
            <route id="bawah_atas" edges="bawah_ke_tengah tengah_ke_atas"/>
            <route id="kiri_atas" edges="kiri_ke_tengah tengah_ke_atas"/>
            <route id="kanan_atas" edges="kanan_ke_tengah tengah_ke_atas"/>
            <route id="atas_kiri" edges="atas_ke_tengah tengah_ke_kiri"/>
            <route id="atas_kanan" edges="atas_ke_tengah tengah_ke_kanan"/>            
            
    <vehicle id="kiri_kanan_0" type="car" route="kiri_kanan" depart="0" />
    <vehicle id="kanan_kiri_1" type="car" route="kanan_kiri" depart="0" />
    <vehicle id="kiri_bawah_2" type="car" route="kiri_bawah" depart="0" />
    <vehicle id="kanan_bawah_3" type="car" route="kanan_bawah" depart="0" />
    <vehicle id="bawah_kiri_4" type="car" route="bawah_kiri" depart="0" />
    <vehicle id="bawah_kanan_5" type="car" route="bawah_kanan" depart="0" />
    <vehicle id="atas_bawah_6" type="car" route="atas_bawah" depart="0" />
    <vehicle id="bawah_atas_7" type="car" route="bawah_atas" depart="0" />
    <vehicle id="kiri_atas_8" type="car" route="kiri_atas" depart="0" />
    <vehicle id="kanan_atas_9" type="car" route="kanan_atas" depart="0" />
    <vehicle id="atas_kiri_10" type="car" route="atas_kiri" depart="0" />
    <vehicle id="atas_kanan_11" type="car" route="atas_kanan" depart="0" />
    <vehicle id="kiri_kanan_12" type="car" route="kiri_kanan" depart="1" />
    <vehicle id="kiri_bawah_13" type="car" route="kiri_bawah" depart="1" />
    <vehicle id="kanan_bawah_14" type="car" route="kanan_bawah" depart="1" />
    <vehicle id="bawah_kiri_15" type="car" route="bawah_kiri" depart="1" />
    <vehicle id="bawah_kanan_16" type="car" route="bawah_kanan" depart="1" />
    <vehicle id="atas_bawah_17" type="car" route="atas_bawah" depart="1" />
    <vehicle id="bawah_atas_18" type="car" route="bawah_atas" depart="1" />
    <vehicle id="kiri_atas_19" type="car" route="kiri_atas" depart="1" />
    <vehicle id="kanan_atas_20" type="car" route="kanan_atas" depart="1" />
    <vehicle id="atas_kiri_21" type="car" route="atas_kiri" depart="1" />
    <vehicle id="atas_kanan_22" type="car" route="atas_kanan" depart="1" />
    <vehicle id="kiri_kanan_23" type="car" route="kiri_kanan" depart="2" />
    <vehicle id="kanan_kiri_24" type="car" route="kanan_kiri" depart="2" />
    <vehicle id="kiri_bawah_25" type="car" route="kiri_bawah" depart="2" />
    <vehicle id="bawah_kanan_26" type="car" route="bawah_kanan" depart="2" />
    <vehicle id="atas_bawah_27" type="car" route="atas_bawah" depart="2" />
    <vehicle id="bawah_atas_28" type="car" route="bawah_atas" depart="2" />
    <vehicle id="kiri_atas_29" type="car" route="kiri_atas" depart="2" />
    <vehicle id="kanan_atas_30" type="car" route="kanan_atas" depart="2" />
    <vehicle id="atas_kiri_31" type="car" route="atas_kiri" depart="2" />
    <vehicle id="atas_kanan_32" type="car" route="atas_kanan" depart="2" />
    <vehicle id="kiri_kanan_33" type="car" route="kiri_kanan" depart="3" />
    <vehicle id="kiri_bawah_34" type="car" route="kiri_bawah" depart="3" />
    <vehicle id="kanan_bawah_35" type="car" route="kanan_bawah" depart="3" />
    <vehicle id="bawah_kiri_36" type="car" route="bawah_kiri" depart="3" />
    <vehicle id="bawah_kanan_37" type="car" route="bawah_kanan" depart="3" />
    <vehicle id="atas_bawah_38" type="car" route="atas_bawah" depart="3" />
    <vehicle id="kiri_atas_39" type="car" route="kiri_atas" depart="3" />
    <vehicle id="kanan_atas_40" type="car" route="kanan_atas" depart="3" />
    <vehicle id="atas_kiri_41" type="car" route="atas_kiri" depart="3" />
    <vehicle id="atas_kanan_42" type="car" route="atas_kanan" depart="3" />
    <vehicle id="kiri_kanan_43" type="car" route="kiri_kanan" depart="4" />
    <vehicle id="kanan_kiri_44" type="car" route="kanan_kiri" depart="4" />
    <vehicle id="kiri_bawah_45" type="car" route="kiri_bawah" depart="4" />
    <vehicle id="kanan_bawah_46" type="car" route="kanan_bawah" depart="4" />
    <vehicle id="bawah_kiri_47" type="car" route="bawah_kiri" depart="4" />
    <vehicle id="bawah_kanan_48" type="car" route="bawah_kanan" depart="4" />
    <vehicle id="atas_bawah_49" type="car" route="atas_bawah" depart="4" />
    <vehicle id="bawah_atas_50" type="car" route="bawah_atas" depart="4" />
    <vehicle id="kiri_atas_51" type="car" route="kiri_atas" depart="4" />
    <vehicle id="kanan_atas_52" type="car" route="kanan_atas" depart="4" />
    <vehicle id="atas_kiri_53" type="car" route="atas_kiri" depart="4" />
    <vehicle id="atas_kanan_54" type="car" route="atas_kanan" depart="4" />
    <vehicle id="kiri_kanan_55" type="car" route="kiri_kanan" depart="5" />
    <vehicle id="kanan_kiri_56" type="car" route="kanan_kiri" depart="5" />
    <vehicle id="kiri_bawah_57" type="car" route="kiri_bawah" depart="5" />
    <vehicle id="kanan_bawah_58" type="car" route="kanan_bawah" depart="5" />
    <vehicle id="bawah_kiri_59" type="car" route="bawah_kiri" depart="5" />
    <vehicle id="bawah_kanan_60" type="car" route="bawah_kanan" depart="5" />
    <vehicle id="atas_bawah_61" type="car" route="atas_bawah" depart="5" />
    <vehicle id="bawah_atas_62" type="car" route="bawah_atas" depart="5" />
    <vehicle id="kiri_atas_63" type="car" route="kiri_atas" depart="5" />
    <vehicle id="kanan_atas_64" type="car" route="kanan_atas" depart="5" />
    <vehicle id="atas_kiri_65" type="car" route="atas_kiri" depart="5" />
    <vehicle id="atas_kanan_66" type="car" route="atas_kanan" depart="5" />
    <vehicle id="kiri_kanan_67" type="car" route="kiri_kanan" depart="6" />
    <vehicle id="kanan_kiri_68" type="car" route="kanan_kiri" depart="6" />
    <vehicle id="kanan_bawah_69" type="car" route="kanan_bawah" depart="6" />
    <vehicle id="bawah_kiri_70" type="car" route="bawah_kiri" depart="6" />
    <vehicle id="bawah_kanan_71" type="car" route="bawah_kanan" depart="6" />
    <vehicle id="atas_bawah_72" type="car" route="atas_bawah" depart="6" />
    <vehicle id="bawah_atas_73" type="car" route="bawah_atas" depart="6" />
    <vehicle id="kiri_atas_74" type="car" route="kiri_atas" depart="6" />
    <vehicle id="kanan_atas_75" type="car" route="kanan_atas" depart="6" />
    <vehicle id="atas_kiri_76" type="car" route="atas_kiri" depart="6" />
    <vehicle id="atas_kanan_77" type="car" route="atas_kanan" depart="6" />
    <vehicle id="kiri_kanan_78" type="car" route="kiri_kanan" depart="7" />
    <vehicle id="kanan_kiri_79" type="car" route="kanan_kiri" depart="7" />
    <vehicle id="kiri_bawah_80" type="car" route="kiri_bawah" depart="7" />
    <vehicle id="kanan_bawah_81" type="car" route="kanan_bawah" depart="7" />
    <vehicle id="bawah_kiri_82" type="car" route="bawah_kiri" depart="7" />
    <vehicle id="bawah_kanan_83" type="car" route="bawah_kanan" depart="7" />
    <vehicle id="atas_bawah_84" type="car" route="atas_bawah" depart="7" />
    <vehicle id="bawah_atas_85" type="car" route="bawah_atas" depart="7" />
    <vehicle id="kiri_atas_86" type="car" route="kiri_atas" depart="7" />
    <vehicle id="kanan_atas_87" type="car" route="kanan_atas" depart="7" />
    <vehicle id="atas_kiri_88" type="car" route="atas_kiri" depart="7" />
    <vehicle id="atas_kanan_89" type="car" route="atas_kanan" depart="7" />
    <vehicle id="kiri_kanan_90" type="car" route="kiri_kanan" depart="8" />
    <vehicle id="kanan_kiri_91" type="car" route="kanan_kiri" depart="8" />
    <vehicle id="kiri_bawah_92" type="car" route="kiri_bawah" depart="8" />
    <vehicle id="kanan_bawah_93" type="car" route="kanan_bawah" depart="8" />
    <vehicle id="bawah_kiri_94" type="car" route="bawah_kiri" depart="8" />
    <vehicle id="bawah_atas_95" type="car" route="bawah_atas" depart="8" />
    <vehicle id="kiri_atas_96" type="car" route="kiri_atas" depart="8" />
    <vehicle id="kanan_atas_97" type="car" route="kanan_atas" depart="8" />
    <vehicle id="atas_kanan_98" type="car" route="atas_kanan" depart="8" />
    <vehicle id="kiri_kanan_99" type="car" route="kiri_kanan" depart="9" />
    <vehicle id="kanan_kiri_100" type="car" route="kanan_kiri" depart="9" />
    <vehicle id="kiri_bawah_101" type="car" route="kiri_bawah" depart="9" />
    <vehicle id="kanan_bawah_102" type="car" route="kanan_bawah" depart="9" />
    <vehicle id="bawah_kiri_103" type="car" route="bawah_kiri" depart="9" />
    <vehicle id="bawah_kanan_104" type="car" route="bawah_kanan" depart="9" />
    <vehicle id="atas_bawah_105" type="car" route="atas_bawah" depart="9" />
    <vehicle id="bawah_atas_106" type="car" route="bawah_atas" depart="9" />
    <vehicle id="kiri_atas_107" type="car" route="kiri_atas" depart="9" />
    <vehicle id="kanan_atas_108" type="car" route="kanan_atas" depart="9" />
    <vehicle id="atas_kiri_109" type="car" route="atas_kiri" depart="9" />
    <vehicle id="atas_kanan_110" type="car" route="atas_kanan" depart="9" />
    <vehicle id="kiri_kanan_111" type="car" route="kiri_kanan" depart="10" />
    <vehicle id="kanan_kiri_112" type="car" route="kanan_kiri" depart="10" />
    <vehicle id="kiri_bawah_113" type="car" route="kiri_bawah" depart="10" />
    <vehicle id="kanan_bawah_114" type="car" route="kanan_bawah" depart="10" />
    <vehicle id="bawah_kiri_115" type="car" route="bawah_kiri" depart="10" />
    <vehicle id="bawah_kanan_116" type="car" route="bawah_kanan" depart="10" />
    <vehicle id="atas_bawah_117" type="car" route="atas_bawah" depart="10" />
    <vehicle id="bawah_atas_118" type="car" route="bawah_atas" depart="10" />
    <vehicle id="kiri_atas_119" type="car" route="kiri_atas" depart="10" />
    <vehicle id="kanan_atas_120" type="car" route="kanan_atas" depart="10" />
    <vehicle id="atas_kiri_121" type="car" route="atas_kiri" depart="10" />
    <vehicle id="atas_kanan_122" type="car" route="atas_kanan" depart="10" />
    <vehicle id="kiri_kanan_123" type="car" route="kiri_kanan" depart="11" />
    <vehicle id="kanan_kiri_124" type="car" route="kanan_kiri" depart="11" />
    <vehicle id="kanan_bawah_125" type="car" route="kanan_bawah" depart="11" />
    <vehicle id="bawah_kiri_126" type="car" route="bawah_kiri" depart="11" />
    <vehicle id="bawah_kanan_127" type="car" route="bawah_kanan" depart="11" />
    <vehicle id="atas_bawah_128" type="car" route="atas_bawah" depart="11" />
    <vehicle id="bawah_atas_129" type="car" route="bawah_atas" depart="11" />
    <vehicle id="kiri_atas_130" type="car" route="kiri_atas" depart="11" />
    <vehicle id="kanan_atas_131" type="car" route="kanan_atas" depart="11" />
    <vehicle id="atas_kiri_132" type="car" route="atas_kiri" depart="11" />
    <vehicle id="atas_kanan_133" type="car" route="atas_kanan" depart="11" />
    <vehicle id="kiri_kanan_134" type="car" route="kiri_kanan" depart="12" />
    <vehicle id="kanan_kiri_135" type="car" route="kanan_kiri" depart="12" />
    <vehicle id="kiri_bawah_136" type="car" route="kiri_bawah" depart="12" />
    <vehicle id="kanan_bawah_137" type="car" route="kanan_bawah" depart="12" />
    <vehicle id="bawah_kiri_138" type="car" route="bawah_kiri" depart="12" />
    <vehicle id="bawah_kanan_139" type="car" route="bawah_kanan" depart="12" />
    <vehicle id="atas_bawah_140" type="car" route="atas_bawah" depart="12" />
    <vehicle id="bawah_atas_141" type="car" route="bawah_atas" depart="12" />
    <vehicle id="kiri_atas_142" type="car" route="kiri_atas" depart="12" />
    <vehicle id="kanan_atas_143" type="car" route="kanan_atas" depart="12" />
    <vehicle id="atas_kiri_144" type="car" route="atas_kiri" depart="12" />
    <vehicle id="atas_kanan_145" type="car" route="atas_kanan" depart="12" />
    <vehicle id="kiri_kanan_146" type="car" route="kiri_kanan" depart="13" />
    <vehicle id="kanan_kiri_147" type="car" route="kanan_kiri" depart="13" />
    <vehicle id="kiri_bawah_148" type="car" route="kiri_bawah" depart="13" />
    <vehicle id="kanan_bawah_149" type="car" route="kanan_bawah" depart="13" />
    <vehicle id="bawah_kiri_150" type="car" route="bawah_kiri" depart="13" />
    <vehicle id="bawah_kanan_151" type="car" route="bawah_kanan" depart="13" />
    <vehicle id="atas_bawah_152" type="car" route="atas_bawah" depart="13" />
    <vehicle id="bawah_atas_153" type="car" route="bawah_atas" depart="13" />
    <vehicle id="kiri_atas_154" type="car" route="kiri_atas" depart="13" />
    <vehicle id="kanan_atas_155" type="car" route="kanan_atas" depart="13" />
    <vehicle id="atas_kiri_156" type="car" route="atas_kiri" depart="13" />
    <vehicle id="atas_kanan_157" type="car" route="atas_kanan" depart="13" />
    <vehicle id="kanan_kiri_158" type="car" route="kanan_kiri" depart="14" />
    <vehicle id="kiri_bawah_159" type="car" route="kiri_bawah" depart="14" />
    <vehicle id="kanan_bawah_160" type="car" route="kanan_bawah" depart="14" />
    <vehicle id="bawah_kiri_161" type="car" route="bawah_kiri" depart="14" />
    <vehicle id="bawah_kanan_162" type="car" route="bawah_kanan" depart="14" />
    <vehicle id="atas_bawah_163" type="car" route="atas_bawah" depart="14" />
    <vehicle id="bawah_atas_164" type="car" route="bawah_atas" depart="14" />
    <vehicle id="kiri_atas_165" type="car" route="kiri_atas" depart="14" />
    <vehicle id="kanan_atas_166" type="car" route="kanan_atas" depart="14" />
    <vehicle id="atas_kiri_167" type="car" route="atas_kiri" depart="14" />
    <vehicle id="atas_kanan_168" type="car" route="atas_kanan" depart="14" />
    <vehicle id="kiri_kanan_169" type="car" route="kiri_kanan" depart="15" />
    <vehicle id="kanan_kiri_170" type="car" route="kanan_kiri" depart="15" />
    <vehicle id="kiri_bawah_171" type="car" route="kiri_bawah" depart="15" />
    <vehicle id="kanan_bawah_172" type="car" route="kanan_bawah" depart="15" />
    <vehicle id="bawah_kiri_173" type="car" route="bawah_kiri" depart="15" />
    <vehicle id="bawah_kanan_174" type="car" route="bawah_kanan" depart="15" />
    <vehicle id="atas_bawah_175" type="car" route="atas_bawah" depart="15" />
    <vehicle id="bawah_atas_176" type="car" route="bawah_atas" depart="15" />
    <vehicle id="kiri_atas_177" type="car" route="kiri_atas" depart="15" />
    <vehicle id="kanan_atas_178" type="car" route="kanan_atas" depart="15" />
    <vehicle id="atas_kiri_179" type="car" route="atas_kiri" depart="15" />
    <vehicle id="atas_kanan_180" type="car" route="atas_kanan" depart="15" />
    <vehicle id="kiri_kanan_181" type="car" route="kiri_kanan" depart="16" />
    <vehicle id="kanan_kiri_182" type="car" route="kanan_kiri" depart="16" />
    <vehicle id="kiri_bawah_183" type="car" route="kiri_bawah" depart="16" />
    <vehicle id="kanan_bawah_184" type="car" route="kanan_bawah" depart="16" />
    <vehicle id="bawah_kiri_185" type="car" route="bawah_kiri" depart="16" />
    <vehicle id="bawah_kanan_186" type="car" route="bawah_kanan" depart="16" />
    <vehicle id="atas_bawah_187" type="car" route="atas_bawah" depart="16" />
    <vehicle id="kiri_atas_188" type="car" route="kiri_atas" depart="16" />
    <vehicle id="kanan_atas_189" type="car" route="kanan_atas" depart="16" />
    <vehicle id="atas_kiri_190" type="car" route="atas_kiri" depart="16" />
    <vehicle id="atas_kanan_191" type="car" route="atas_kanan" depart="16" />
    <vehicle id="kiri_kanan_192" type="car" route="kiri_kanan" depart="17" />
    <vehicle id="kanan_kiri_193" type="car" route="kanan_kiri" depart="17" />
    <vehicle id="kiri_bawah_194" type="car" route="kiri_bawah" depart="17" />
    <vehicle id="kanan_bawah_195" type="car" route="kanan_bawah" depart="17" />
    <vehicle id="bawah_kiri_196" type="car" route="bawah_kiri" depart="17" />
    <vehicle id="bawah_kanan_197" type="car" route="bawah_kanan" depart="17" />
    <vehicle id="atas_bawah_198" type="car" route="atas_bawah" depart="17" />
    <vehicle id="bawah_atas_199" type="car" route="bawah_atas" depart="17" />
    <vehicle id="kiri_atas_200" type="car" route="kiri_atas" depart="17" />
    <vehicle id="kanan_atas_201" type="car" route="kanan_atas" depart="17" />
    <vehicle id="atas_kiri_202" type="car" route="atas_kiri" depart="17" />
    <vehicle id="atas_kanan_203" type="car" route="atas_kanan" depart="17" />
    <vehicle id="kiri_kanan_204" type="car" route="kiri_kanan" depart="18" />
    <vehicle id="kanan_kiri_205" type="car" route="kanan_kiri" depart="18" />
    <vehicle id="kanan_bawah_206" type="car" route="kanan_bawah" depart="18" />
    <vehicle id="bawah_kiri_207" type="car" route="bawah_kiri" depart="18" />
    <vehicle id="bawah_kanan_208" type="car" route="bawah_kanan" depart="18" />
    <vehicle id="atas_bawah_209" type="car" route="atas_bawah" depart="18" />
    <vehicle id="bawah_atas_210" type="car" route="bawah_atas" depart="18" />
    <vehicle id="kiri_atas_211" type="car" route="kiri_atas" depart="18" />
    <vehicle id="kanan_atas_212" type="car" route="kanan_atas" depart="18" />
    <vehicle id="atas_kiri_213" type="car" route="atas_kiri" depart="18" />
    <vehicle id="kiri_kanan_214" type="car" route="kiri_kanan" depart="19" />
    <vehicle id="kiri_bawah_215" type="car" route="kiri_bawah" depart="19" />
    <vehicle id="kanan_bawah_216" type="car" route="kanan_bawah" depart="19" />
    <vehicle id="bawah_kiri_217" type="car" route="bawah_kiri" depart="19" />
    <vehicle id="bawah_kanan_218" type="car" route="bawah_kanan" depart="19" />
    <vehicle id="atas_bawah_219" type="car" route="atas_bawah" depart="19" />
    <vehicle id="bawah_atas_220" type="car" route="bawah_atas" depart="19" />
    <vehicle id="kiri_atas_221" type="car" route="kiri_atas" depart="19" />
    <vehicle id="kanan_atas_222" type="car" route="kanan_atas" depart="19" />
    <vehicle id="atas_kiri_223" type="car" route="atas_kiri" depart="19" />
    <vehicle id="kiri_kanan_224" type="car" route="kiri_kanan" depart="20" />
    <vehicle id="kanan_kiri_225" type="car" route="kanan_kiri" depart="20" />
    <vehicle id="kiri_bawah_226" type="car" route="kiri_bawah" depart="20" />
    <vehicle id="kanan_bawah_227" type="car" route="kanan_bawah" depart="20" />
    <vehicle id="bawah_kiri_228" type="car" route="bawah_kiri" depart="20" />
    <vehicle id="bawah_kanan_229" type="car" route="bawah_kanan" depart="20" />
    <vehicle id="atas_bawah_230" type="car" route="atas_bawah" depart="20" />
    <vehicle id="bawah_atas_231" type="car" route="bawah_atas" depart="20" />
    <vehicle id="kiri_atas_232" type="car" route="kiri_atas" depart="20" />
    <vehicle id="kanan_atas_233" type="car" route="kanan_atas" depart="20" />
    <vehicle id="atas_kiri_234" type="car" route="atas_kiri" depart="20" />
    <vehicle id="atas_kanan_235" type="car" route="atas_kanan" depart="20" />
    <vehicle id="kiri_kanan_236" type="car" route="kiri_kanan" depart="21" />
    <vehicle id="kanan_kiri_237" type="car" route="kanan_kiri" depart="21" />
    <vehicle id="kiri_bawah_238" type="car" route="kiri_bawah" depart="21" />
    <vehicle id="kanan_bawah_239" type="car" route="kanan_bawah" depart="21" />
    <vehicle id="bawah_kiri_240" type="car" route="bawah_kiri" depart="21" />
    <vehicle id="bawah_kanan_241" type="car" route="bawah_kanan" depart="21" />
    <vehicle id="atas_bawah_242" type="car" route="atas_bawah" depart="21" />
    <vehicle id="bawah_atas_243" type="car" route="bawah_atas" depart="21" />
    <vehicle id="kiri_atas_244" type="car" route="kiri_atas" depart="21" />
    <vehicle id="kanan_atas_245" type="car" route="kanan_atas" depart="21" />
    <vehicle id="atas_kiri_246" type="car" route="atas_kiri" depart="21" />
    <vehicle id="atas_kanan_247" type="car" route="atas_kanan" depart="21" />
    <vehicle id="kiri_kanan_248" type="car" route="kiri_kanan" depart="22" />
    <vehicle id="kanan_kiri_249" type="car" route="kanan_kiri" depart="22" />
    <vehicle id="kiri_bawah_250" type="car" route="kiri_bawah" depart="22" />
    <vehicle id="kanan_bawah_251" type="car" route="kanan_bawah" depart="22" />
    <vehicle id="bawah_kiri_252" type="car" route="bawah_kiri" depart="22" />
    <vehicle id="bawah_kanan_253" type="car" route="bawah_kanan" depart="22" />
    <vehicle id="atas_bawah_254" type="car" route="atas_bawah" depart="22" />
    <vehicle id="bawah_atas_255" type="car" route="bawah_atas" depart="22" />
    <vehicle id="kiri_atas_256" type="car" route="kiri_atas" depart="22" />
    <vehicle id="kanan_atas_257" type="car" route="kanan_atas" depart="22" />
    <vehicle id="atas_kiri_258" type="car" route="atas_kiri" depart="22" />
    <vehicle id="atas_kanan_259" type="car" route="atas_kanan" depart="22" />
    <vehicle id="kiri_kanan_260" type="car" route="kiri_kanan" depart="23" />
    <vehicle id="kanan_kiri_261" type="car" route="kanan_kiri" depart="23" />
    <vehicle id="kiri_bawah_262" type="car" route="kiri_bawah" depart="23" />
    <vehicle id="bawah_kiri_263" type="car" route="bawah_kiri" depart="23" />
    <vehicle id="bawah_kanan_264" type="car" route="bawah_kanan" depart="23" />
    <vehicle id="atas_bawah_265" type="car" route="atas_bawah" depart="23" />
    <vehicle id="bawah_atas_266" type="car" route="bawah_atas" depart="23" />
    <vehicle id="kiri_atas_267" type="car" route="kiri_atas" depart="23" />
    <vehicle id="kanan_atas_268" type="car" route="kanan_atas" depart="23" />
    <vehicle id="atas_kiri_269" type="car" route="atas_kiri" depart="23" />
    <vehicle id="atas_kanan_270" type="car" route="atas_kanan" depart="23" />
    <vehicle id="kiri_kanan_271" type="car" route="kiri_kanan" depart="24" />
    <vehicle id="kanan_kiri_272" type="car" route="kanan_kiri" depart="24" />
    <vehicle id="kiri_bawah_273" type="car" route="kiri_bawah" depart="24" />
    <vehicle id="kanan_bawah_274" type="car" route="kanan_bawah" depart="24" />
    <vehicle id="bawah_kiri_275" type="car" route="bawah_kiri" depart="24" />
    <vehicle id="bawah_kanan_276" type="car" route="bawah_kanan" depart="24" />
    <vehicle id="atas_bawah_277" type="car" route="atas_bawah" depart="24" />
    <vehicle id="bawah_atas_278" type="car" route="bawah_atas" depart="24" />
    <vehicle id="kiri_atas_279" type="car" route="kiri_atas" depart="24" />
    <vehicle id="kanan_atas_280" type="car" route="kanan_atas" depart="24" />
    <vehicle id="atas_kiri_281" type="car" route="atas_kiri" depart="24" />
    <vehicle id="kanan_kiri_282" type="car" route="kanan_kiri" depart="25" />
    <vehicle id="kiri_bawah_283" type="car" route="kiri_bawah" depart="25" />
    <vehicle id="kanan_bawah_284" type="car" route="kanan_bawah" depart="25" />
    <vehicle id="bawah_kiri_285" type="car" route="bawah_kiri" depart="25" />
    <vehicle id="bawah_kanan_286" type="car" route="bawah_kanan" depart="25" />
    <vehicle id="atas_bawah_287" type="car" route="atas_bawah" depart="25" />
    <vehicle id="bawah_atas_288" type="car" route="bawah_atas" depart="25" />
    <vehicle id="kiri_atas_289" type="car" route="kiri_atas" depart="25" />
    <vehicle id="kanan_atas_290" type="car" route="kanan_atas" depart="25" />
    <vehicle id="atas_kiri_291" type="car" route="atas_kiri" depart="25" />
    <vehicle id="kiri_kanan_292" type="car" route="kiri_kanan" depart="26" />
    <vehicle id="kanan_kiri_293" type="car" route="kanan_kiri" depart="26" />
    <vehicle id="kiri_bawah_294" type="car" route="kiri_bawah" depart="26" />
    <vehicle id="kanan_bawah_295" type="car" route="kanan_bawah" depart="26" />
    <vehicle id="bawah_kiri_296" type="car" route="bawah_kiri" depart="26" />
    <vehicle id="bawah_kanan_297" type="car" route="bawah_kanan" depart="26" />
    <vehicle id="atas_bawah_298" type="car" route="atas_bawah" depart="26" />
    <vehicle id="bawah_atas_299" type="car" route="bawah_atas" depart="26" />
    <vehicle id="kiri_atas_300" type="car" route="kiri_atas" depart="26" />
    <vehicle id="kanan_atas_301" type="car" route="kanan_atas" depart="26" />
    <vehicle id="atas_kiri_302" type="car" route="atas_kiri" depart="26" />
    <vehicle id="atas_kanan_303" type="car" route="atas_kanan" depart="26" />
    <vehicle id="kiri_kanan_304" type="car" route="kiri_kanan" depart="27" />
    <vehicle id="kanan_kiri_305" type="car" route="kanan_kiri" depart="27" />
    <vehicle id="kiri_bawah_306" type="car" route="kiri_bawah" depart="27" />
    <vehicle id="kanan_bawah_307" type="car" route="kanan_bawah" depart="27" />
    <vehicle id="bawah_kanan_308" type="car" route="bawah_kanan" depart="27" />
    <vehicle id="atas_bawah_309" type="car" route="atas_bawah" depart="27" />
    <vehicle id="bawah_atas_310" type="car" route="bawah_atas" depart="27" />
    <vehicle id="kiri_atas_311" type="car" route="kiri_atas" depart="27" />
    <vehicle id="kanan_atas_312" type="car" route="kanan_atas" depart="27" />
    <vehicle id="atas_kiri_313" type="car" route="atas_kiri" depart="27" />
    <vehicle id="atas_kanan_314" type="car" route="atas_kanan" depart="27" />
    <vehicle id="kiri_kanan_315" type="car" route="kiri_kanan" depart="28" />
    <vehicle id="kanan_kiri_316" type="car" route="kanan_kiri" depart="28" />
    <vehicle id="kiri_bawah_317" type="car" route="kiri_bawah" depart="28" />
    <vehicle id="kanan_bawah_318" type="car" route="kanan_bawah" depart="28" />
    <vehicle id="bawah_kiri_319" type="car" route="bawah_kiri" depart="28" />
    <vehicle id="bawah_kanan_320" type="car" route="bawah_kanan" depart="28" />
    <vehicle id="atas_bawah_321" type="car" route="atas_bawah" depart="28" />
    <vehicle id="bawah_atas_322" type="car" route="bawah_atas" depart="28" />
    <vehicle id="kiri_atas_323" type="car" route="kiri_atas" depart="28" />
    <vehicle id="kanan_atas_324" type="car" route="kanan_atas" depart="28" />
    <vehicle id="kiri_bawah_325" type="car" route="kiri_bawah" depart="29" />
    <vehicle id="kanan_bawah_326" type="car" route="kanan_bawah" depart="29" />
    <vehicle id="bawah_kiri_327" type="car" route="bawah_kiri" depart="29" />
    <vehicle id="bawah_kanan_328" type="car" route="bawah_kanan" depart="29" />
    <vehicle id="bawah_atas_329" type="car" route="bawah_atas" depart="29" />
    <vehicle id="kiri_atas_330" type="car" route="kiri_atas" depart="29" />
    <vehicle id="kanan_atas_331" type="car" route="kanan_atas" depart="29" />
    <vehicle id="atas_kiri_332" type="car" route="atas_kiri" depart="29" />
    <vehicle id="atas_kanan_333" type="car" route="atas_kanan" depart="29" />
    <vehicle id="kanan_kiri_334" type="car" route="kanan_kiri" depart="30" />
    <vehicle id="kiri_bawah_335" type="car" route="kiri_bawah" depart="30" />
    <vehicle id="kanan_bawah_336" type="car" route="kanan_bawah" depart="30" />
    <vehicle id="bawah_kanan_337" type="car" route="bawah_kanan" depart="30" />
    <vehicle id="atas_bawah_338" type="car" route="atas_bawah" depart="30" />
    <vehicle id="bawah_atas_339" type="car" route="bawah_atas" depart="30" />
    <vehicle id="kiri_atas_340" type="car" route="kiri_atas" depart="30" />
    <vehicle id="kanan_atas_341" type="car" route="kanan_atas" depart="30" />
    <vehicle id="atas_kiri_342" type="car" route="atas_kiri" depart="30" />
    <vehicle id="atas_kanan_343" type="car" route="atas_kanan" depart="30" />
    <vehicle id="kiri_kanan_344" type="car" route="kiri_kanan" depart="31" />
    <vehicle id="kanan_kiri_345" type="car" route="kanan_kiri" depart="31" />
    <vehicle id="kiri_bawah_346" type="car" route="kiri_bawah" depart="31" />
    <vehicle id="kanan_bawah_347" type="car" route="kanan_bawah" depart="31" />
    <vehicle id="bawah_kiri_348" type="car" route="bawah_kiri" depart="31" />
    <vehicle id="bawah_kanan_349" type="car" route="bawah_kanan" depart="31" />
    <vehicle id="atas_bawah_350" type="car" route="atas_bawah" depart="31" />
    <vehicle id="bawah_atas_351" type="car" route="bawah_atas" depart="31" />
    <vehicle id="kiri_atas_352" type="car" route="kiri_atas" depart="31" />
    <vehicle id="kanan_atas_353" type="car" route="kanan_atas" depart="31" />
    <vehicle id="atas_kiri_354" type="car" route="atas_kiri" depart="31" />
    <vehicle id="atas_kanan_355" type="car" route="atas_kanan" depart="31" />
    <vehicle id="kiri_kanan_356" type="car" route="kiri_kanan" depart="32" />
    <vehicle id="kanan_kiri_357" type="car" route="kanan_kiri" depart="32" />
    <vehicle id="kiri_bawah_358" type="car" route="kiri_bawah" depart="32" />
    <vehicle id="kanan_bawah_359" type="car" route="kanan_bawah" depart="32" />
    <vehicle id="bawah_kiri_360" type="car" route="bawah_kiri" depart="32" />
    <vehicle id="bawah_kanan_361" type="car" route="bawah_kanan" depart="32" />
    <vehicle id="atas_bawah_362" type="car" route="atas_bawah" depart="32" />
    <vehicle id="bawah_atas_363" type="car" route="bawah_atas" depart="32" />
    <vehicle id="kiri_atas_364" type="car" route="kiri_atas" depart="32" />
    <vehicle id="kanan_atas_365" type="car" route="kanan_atas" depart="32" />
    <vehicle id="atas_kiri_366" type="car" route="atas_kiri" depart="32" />
    <vehicle id="atas_kanan_367" type="car" route="atas_kanan" depart="32" />
    <vehicle id="kiri_kanan_368" type="car" route="kiri_kanan" depart="33" />
    <vehicle id="kanan_kiri_369" type="car" route="kanan_kiri" depart="33" />
    <vehicle id="kiri_bawah_370" type="car" route="kiri_bawah" depart="33" />
    <vehicle id="kanan_bawah_371" type="car" route="kanan_bawah" depart="33" />
    <vehicle id="bawah_kiri_372" type="car" route="bawah_kiri" depart="33" />