<?xml version="1.0" encoding="UTF-8"?>

<!-- generated on Sel 16 Nov 2021 07:05:30  by Eclipse SUMO netedit Version 1.8.0
<configuration xmlns:xsi="http://www.w3.org/2001/XMLSchema-instance" xsi:noNamespaceSchemaLocation="http://sumo.dlr.de/xsd/netconvertConfiguration.xsd">

    <input>
        <sumo-net-file value="/home/nugroho/Projects/Simulator/SUMO/project2/test2.net.xml"/>
    </input>

    <output>
        <output-file value="/home/nugroho/Projects/Simulator/SUMO/project2/test2.net.xml"/>
    </output>

    <processing>
        <geometry.min-radius.fix.railways value="false"/>
        <geometry.max-grade.fix value="false"/>
        <offset.disable-normalization value="true"/>
        <lefthand value="false"/>
    </processing>

    <junctions>
        <no-turnarounds value="true"/>
        <junctions.corner-detail value="5"/>
        <junctions.limit-turn-speed value="5.5"/>
        <rectangular-lane-cut value="false"/>
    </junctions>

    <pedestrian>
        <walkingareas value="false"/>
    </pedestrian>

    <report>
        <aggregate-warnings value="5"/>
    </report>

</configuration>
-->

<net version="1.6" junctionCornerDetail="5" limitTurnSpeed="5.50" xmlns:xsi="http://www.w3.org/2001/XMLSchema-instance" xsi:noNamespaceSchemaLocation="http://sumo.dlr.de/xsd/net_file.xsd">

    <location netOffset="0.00,0.00" convBoundary="-100.00,-200.00,300.00,200.00" origBoundary="-10000000000.00,-10000000000.00,10000000000.00,10000000000.00" projParameter="!"/>

    <edge id=":titik_tengah_0" function="internal">
        <lane id=":titik_tengah_0_0" index="0" speed="6.51" length="9.03" shape="95.20,10.40 94.85,7.95 93.80,6.20 92.05,5.15 89.60,4.80"/>
    </edge>
    <edge id=":titik_tengah_1" function="internal">
        <lane id=":titik_tengah_1_0" index="0" speed="7.33" length="11.73" shape="95.20,10.40 94.85,6.55 93.80,3.80 92.05,2.15 89.60,1.60"/>
    </edge>
    <edge id=":titik_tengah_2" function="internal">
        <lane id=":titik_tengah_2_0" index="0" speed="13.89" length="20.80" shape="95.20,10.40 95.20,-10.40"/>
        <lane id=":titik_tengah_2_1" index="1" speed="13.89" length="20.80" shape="98.40,10.40 98.40,-10.40"/>
    </edge>
    <edge id=":titik_tengah_4" function="internal">
        <lane id=":titik_tengah_4_0" index="0" speed="9.84" length="21.99" shape="98.40,10.40 99.15,3.75 101.40,-1.00 105.15,-3.85 110.40,-4.80"/>
    </edge>
    <edge id=":titik_tengah_5" function="internal">
        <lane id=":titik_tengah_5_0" index="0" speed="9.26" length="19.35" shape="98.40,10.40 99.15,5.15 101.40,1.40 105.15,-0.85 110.40,-1.60"/>
    </edge>
    <edge id=":titik_tengah_6" function="internal">
        <lane id=":titik_tengah_6_0" index="0" speed="6.51" length="9.03" shape="110.40,4.80 107.95,5.15 106.20,6.20 105.15,7.95 104.80,10.40"/>
    </edge>
    <edge id=":titik_tengah_7" function="internal">
        <lane id=":titik_tengah_7_0" index="0" speed="7.33" length="11.73" shape="110.40,4.80 106.55,5.15 103.80,6.20 102.15,7.95 101.60,10.40"/>
    </edge>
    <edge id=":titik_tengah_8" function="internal">
        <lane id=":titik_tengah_8_0" index="0" speed="13.89" length="20.80" shape="110.40,4.80 89.60,4.80"/>
        <lane id=":titik_tengah_8_1" index="1" speed="13.89" length="20.80" shape="110.40,1.60 89.60,1.60"/>
    </edge>
    <edge id=":titik_tengah_10" function="internal">
        <lane id=":titik_tengah_10_0" index="0" speed="9.84" length="21.99" shape="110.40,1.60 103.75,0.85 99.00,-1.40 96.15,-5.15 95.20,-10.40"/>
    </edge>
    <edge id=":titik_tengah_11" function="internal">
        <lane id=":titik_tengah_11_0" index="0" speed="9.26" length="19.35" shape="110.40,1.60 105.15,0.85 101.40,-1.40 99.15,-5.15 98.40,-10.40"/>
    </edge>
    <edge id=":titik_tengah_12" function="internal">
        <lane id=":titik_tengah_12_0" index="0" speed="6.51" length="9.03" shape="104.80,-10.40 105.15,-7.95 106.20,-6.20 107.95,-5.15 110.40,-4.80"/>
    </edge>
    <edge id=":titik_tengah_13" function="internal">
        <lane id=":titik_tengah_13_0" index="0" speed="7.33" length="11.73" shape="104.80,-10.40 105.15,-6.55 106.20,-3.80 107.95,-2.15 110.40,-1.60"/>
    </edge>
    <edge id=":titik_tengah_14" function="internal">
        <lane id=":titik_tengah_14_0" index="0" speed="13.89" length="20.80" shape="104.80,-10.40 104.80,10.40"/>
        <lane id=":titik_tengah_14_1" index="1" speed="13.89" length="20.80" shape="101.60,-10.40 101.60,10.40"/>
    </edge>
    <edge id=":titik_tengah_16" function="internal">
        <lane id=":titik_tengah_16_0" index="0" speed="9.84" length="21.99" shape="101.60,-10.40 100.85,-3.75 98.60,1.00 94.85,3.85 89.60,4.80"/>
    </edge>
    <edge id=":titik_tengah_17" function="internal">
        <lane id=":titik_tengah_17_0" index="0" speed="9.26" length="19.35" shape="101.60,-10.40 100.85,-5.15 98.60,-1.40 94.85,0.85 89.60,1.60"/>
    </edge>
    <edge id=":titik_tengah_18" function="internal">
        <lane id=":titik_tengah_18_0" index="0" speed="6.51" length="9.03" shape="89.60,-4.80 92.05,-5.15 93.80,-6.20 94.85,-7.95 95.20,-10.40"/>
    </edge>
    <edge id=":titik_tengah_19" function="internal">
        <lane id=":titik_tengah_19_0" index="0" speed="7.33" length="11.73" shape="89.60,-4.80 93.45,-5.15 96.20,-6.20 97.85,-7.95 98.40,-10.40"/>
    </edge>
    <edge id=":titik_tengah_20" function="internal">
        <lane id=":titik_tengah_20_0" index="0" speed="13.89" length="20.80" shape="89.60,-4.80 110.40,-4.80"/>
        <lane id=":titik_tengah_20_1" index="1" speed="13.89" length="20.80" shape="89.60,-1.60 110.40,-1.60"/>
    </edge>
    <edge id=":titik_tengah_22" function="internal">
        <lane id=":titik_tengah_22_0" index="0" speed="9.84" length="21.99" shape="89.60,-1.60 96.25,-0.85 101.00,1.40 103.85,5.15 104.80,10.40"/>
    </edge>
    <edge id=":titik_tengah_23" function="internal">
        <lane id=":titik_tengah_23_0" index="0" speed="9.26" length="19.35" shape="89.60,-1.60 94.85,-0.85 98.60,1.40 100.85,5.15 101.60,10.40"/>
    </edge>

    <edge id="atas_ke_tengah" from="titik_atas" to="titik_tengah" priority="-1">
        <lane id="atas_ke_tengah_0" index="0" speed="13.89" length="189.60" shape="95.20,200.00 95.20,10.40"/>
        <lane id="atas_ke_tengah_1" index="1" speed="13.89" length="189.60" shape="98.40,200.00 98.40,10.40"/>
    </edge>
    <edge id="bawah_ke_tengah" from="titik_bawah" to="titik_tengah" priority="-1">
        <lane id="bawah_ke_tengah_0" index="0" speed="13.89" length="189.60" shape="104.80,-200.00 104.80,-10.40"/>
        <lane id="bawah_ke_tengah_1" index="1" speed="13.89" length="189.60" shape="101.60,-200.00 101.60,-10.40"/>
    </edge>
    <edge id="kanan_ke_tengah" from="titik_kanan" to="titik_tengah" priority="-1">
        <lane id="kanan_ke_tengah_0" index="0" speed="13.89" length="189.60" shape="300.00,4.80 110.40,4.80"/>
        <lane id="kanan_ke_tengah_1" index="1" speed="13.89" length="189.60" shape="300.00,1.60 110.40,1.60"/>
    </edge>
    <edge id="kiri_ke_tengah" from="titik_kiri" to="titik_tengah" priority="-1">
        <lane id="kiri_ke_tengah_0" index="0" speed="13.89" length="189.60" shape="-100.00,-4.80 89.60,-4.80"/>
        <lane id="kiri_ke_tengah_1" index="1" speed="13.89" length="189.60" shape="-100.00,-1.60 89.60,-1.60"/>
    </edge>
    <edge id="tengah_ke_atas" from="titik_tengah" to="titik_atas" priority="-1">
        <lane id="tengah_ke_atas_0" index="0" speed="13.89" length="189.60" shape="104.80,10.40 104.80,200.00"/>
        <lane id="tengah_ke_atas_1" index="1" speed="13.89" length="189.60" shape="101.60,10.40 101.60,200.00"/>
    </edge>
    <edge id="tengah_ke_bawah" from="titik_tengah" to="titik_bawah" priority="-1">
        <lane id="tengah_ke_bawah_0" index="0" speed="13.89" length="189.60" shape="95.20,-10.40 95.20,-200.00"/>
        <lane id="tengah_ke_bawah_1" index="1" speed="13.89" length="189.60" shape="98.40,-10.40 98.40,-200.00"/>
    </edge>
    <edge id="tengah_ke_kanan" from="titik_tengah" to="titik_kanan" priority="-1">
        <lane id="tengah_ke_kanan_0" index="0" speed="13.89" length="189.60" shape="110.40,-4.80 300.00,-4.80"/>
        <lane id="tengah_ke_kanan_1" index="1" speed="13.89" length="189.60" shape="110.40,-1.60 300.00,-1.60"/>
    </edge>
    <edge id="tengah_ke_kiri" from="titik_tengah" to="titik_kiri" priority="-1">
        <lane id="tengah_ke_kiri_0" index="0" speed="13.89" length="189.60" shape="89.60,4.80 -100.00,4.80"/>
        <lane id="tengah_ke_kiri_1" index="1" speed="13.89" length="189.60" shape="89.60,1.60 -100.00,1.60"/>
    </edge>

    <tlLogic id="gneJ10" type="static" programID="0" offset="0">
        <phase duration="42" state="GGGGGGrrrrrrrrrrrrrrrrrr"/>
        <phase duration="3"  state="yyyyyyrrrrrrrrrrrrrrrrrr"/>
        <phase duration="42" state="rrrrrrGGGGGGrrrrrrrrrrrr"/>
        <phase duration="3"  state="rrrrrryyyyyyrrrrrrrrrrrr"/>
        <phase duration="42" state="rrrrrrrrrrrrGGGGGGrrrrrr"/>
        <phase duration="3"  state="rrrrrrrrrrrryyyyyyrrrrrr"/>
        <phase duration="42" state="rrrrrrrrrrrrrrrrrrGGGGGG"/>
        <phase duration="3"  state="rrrrrrrrrrrrrrrrrryyyyyy"/>
    </tlLogic>

    <junction id="titik_atas" type="dead_end" x="100.00" y="200.00" incLanes="tengah_ke_atas_0 tengah_ke_atas_1" intLanes="" shape="100.00,200.00 106.40,200.00 100.00,200.00"/>
    <junction id="titik_bawah" type="dead_end" x="100.00" y="-200.00" incLanes="tengah_ke_bawah_0 tengah_ke_bawah_1" intLanes="" shape="100.00,-200.00 93.60,-200.00 100.00,-200.00"/>
    <junction id="titik_kanan" type="dead_end" x="300.00" y="0.00" incLanes="tengah_ke_kanan_0 tengah_ke_kanan_1" intLanes="" shape="300.00,0.00 300.00,-6.40 300.00,0.00"/>
    <junction id="titik_kiri" type="dead_end" x="-100.00" y="0.00" incLanes="tengah_ke_kiri_0 tengah_ke_kiri_1" intLanes="" shape="-100.00,0.00 -100.00,6.40 -100.00,0.00"/>
    <junction id="titik_tengah" type="traffic_light" x="100.00" y="0.00" incLanes="atas_ke_tengah_0 atas_ke_tengah_1 kanan_ke_tengah_0 kanan_ke_tengah_1 bawah_ke_tengah_0 bawah_ke_tengah_1 kiri_ke_tengah_0 kiri_ke_tengah_1" intLanes=":titik_tengah_0_0 :titik_tengah_1_0 :titik_tengah_2_0 :titik_tengah_2_1 :titik_tengah_4_0 :titik_tengah_5_0 :titik_tengah_6_0 :titik_tengah_7_0 :titik_tengah_8_0 :titik_tengah_8_1 :titik_tengah_10_0 :titik_tengah_11_0 :titik_tengah_12_0 :titik_tengah_13_0 :titik_tengah_14_0 :titik_tengah_14_1 :titik_tengah_16_0 :titik_tengah_17_0 :titik_tengah_18_0 :titik_tengah_19_0 :titik_tengah_20_0 :titik_tengah_20_1 :titik_tengah_22_0 :titik_tengah_23_0" shape="93.60,10.40 106.40,10.40 106.84,8.18 107.40,7.40 108.18,6.84 109.18,6.51 110.40,6.40 110.40,-6.40 108.18,-6.84 107.40,-7.40 106.84,-8.18 106.51,-9.18 106.40,-10.40 93.60,-10.40 93.16,-8.18 92.60,-7.40 91.82,-6.84 90.82,-6.51 89.60,-6.40 89.60,6.40 91.82,6.84 92.60,7.40 93.16,8.18 93.49,9.18">
        <request index="0"  response="000000000000000000000000" foes="000000110000001100000000" cont="0"/>
        <request index="1"  response="000000000000000000000000" foes="000000110000001100000000" cont="0"/>
        <request index="2"  response="000000000000000000000000" foes="111111110000111100000000" cont="0"/>
        <request index="3"  response="000000000000000000000000" foes="111111110000111100000000" cont="0"/>
        <request index="4"  response="000000001111000000000000" foes="111100001111111100000000" cont="0"/>
        <request index="5"  response="000000001111000000000000" foes="111100001111111100000000" cont="0"/>
        <request index="6"  response="000000001100000000000000" foes="110000001100000000000000" cont="0"/>
        <request index="7"  response="000000001100000000000000" foes="110000001100000000000000" cont="0"/>
        <request index="8"  response="000000111100000000111111" foes="110000111100000000111111" cont="0"/>
        <request index="9"  response="000000111100000000111111" foes="110000111100000000111111" cont="0"/>
        <request index="10" response="001111111100000000111100" foes="001111111100000000111100" cont="0"/>
        <request index="11" response="001111111100000000111100" foes="001111111100000000111100" cont="0"/>
        <request index="12" response="000000000000000000000000" foes="001100000000000000110000" cont="0"/>
        <request index="13" response="000000000000000000000000" foes="001100000000000000110000" cont="0"/>
        <request index="14" response="000000000000000000000000" foes="111100000000111111110000" cont="0"/>
        <request index="15" response="000000000000000000000000" foes="111100000000111111110000" cont="0"/>
        <request index="16" response="000000000000000000001111" foes="111100000000111100001111" cont="0"/>
        <request index="17" response="000000000000000000001111" foes="111100000000111100001111" cont="0"/>
        <request index="18" response="000000000000000000001100" foes="000000000000110000001100" cont="0"/>
        <request index="19" response="000000000000000000001100" foes="000000000000110000001100" cont="0"/>
        <request index="20" response="000000111111000000111100" foes="000000111111110000111100" cont="0"/>
        <request index="21" response="000000111111000000111100" foes="000000111111110000111100" cont="0"/>
        <request index="22" response="000000111100001111111100" foes="000000111100001111111100" cont="0"/>
        <request index="23" response="000000111100001111111100" foes="000000111100001111111100" cont="0"/>
    </junction>

    <connection from="atas_ke_tengah" to="tengah_ke_kiri" fromLane="0" toLane="0" via=":titik_tengah_0_0" tl="gneJ10" linkIndex="0" dir="r" state="O"/>
    <connection from="atas_ke_tengah" to="tengah_ke_kiri" fromLane="0" toLane="1" via=":titik_tengah_1_0" tl="gneJ10" linkIndex="1" dir="r" state="O"/>
    <connection from="atas_ke_tengah" to="tengah_ke_bawah" fromLane="0" toLane="0" via=":titik_tengah_2_0" tl="gneJ10" linkIndex="2" dir="s" state="O"/>
    <connection from="atas_ke_tengah" to="tengah_ke_bawah" fromLane="1" toLane="1" via=":titik_tengah_2_1" tl="gneJ10" linkIndex="3" dir="s" state="O"/>
    <connection from="atas_ke_tengah" to="tengah_ke_kanan" fromLane="1" toLane="0" via=":titik_tengah_4_0" tl="gneJ10" linkIndex="4" dir="l" state="o"/>
    <connection from="atas_ke_tengah" to="tengah_ke_kanan" fromLane="1" toLane="1" via=":titik_tengah_5_0" tl="gneJ10" linkIndex="5" dir="l" state="o"/>
    <connection from="bawah_ke_tengah" to="tengah_ke_kanan" fromLane="0" toLane="0" via=":titik_tengah_12_0" tl="gneJ10" linkIndex="12" dir="r" state="O"/>
    <connection from="bawah_ke_tengah" to="tengah_ke_kanan" fromLane="0" toLane="1" via=":titik_tengah_13_0" tl="gneJ10" linkIndex="13" dir="r" state="O"/>
    <connection from="bawah_ke_tengah" to="tengah_ke_atas" fromLane="0" toLane="0" via=":titik_tengah_14_0" tl="gneJ10" linkIndex="14" dir="s" state="O"/>
    <connection from="bawah_ke_tengah" to="tengah_ke_atas" fromLane="1" toLane="1" via=":titik_tengah_14_1" tl="gneJ10" linkIndex="15" dir="s" state="O"/>
    <connection from="bawah_ke_tengah" to="tengah_ke_kiri" fromLane="1" toLane="0" via=":titik_tengah_16_0" tl="gneJ10" linkIndex="16" dir="l" state="o"/>
    <connection from="bawah_ke_tengah" to="tengah_ke_kiri" fromLane="1" toLane="1" via=":titik_tengah_17_0" tl="gneJ10" linkIndex="17" dir="l" state="o"/>
    <connection from="kanan_ke_tengah" to="tengah_ke_atas" fromLane="0" toLane="0" via=":titik_tengah_6_0" tl="gneJ10" linkIndex="6" dir="r" state="o"/>
    <connection from="kanan_ke_tengah" to="tengah_ke_atas" fromLane="0" toLane="1" via=":titik_tengah_7_0" tl="gneJ10" linkIndex="7" dir="r" state="o"/>
    <connection from="kanan_ke_tengah" to="tengah_ke_kiri" fromLane="0" toLane="0" via=":titik_tengah_8_0" tl="gneJ10" linkIndex="8" dir="s" state="o"/>
    <connection from="kanan_ke_tengah" to="tengah_ke_kiri" fromLane="1" toLane="1" via=":titik_tengah_8_1" tl="gneJ10" linkIndex="9" dir="s" state="o"/>
    <connection from="kanan_ke_tengah" to="tengah_ke_bawah" fromLane="1" toLane="0" via=":titik_tengah_10_0" tl="gneJ10" linkIndex="10" dir="l" state="o"/>
    <connection from="kanan_ke_tengah" to="tengah_ke_bawah" fromLane="1" toLane="1" via=":titik_tengah_11_0" tl="gneJ10" linkIndex="11" dir="l" state="o"/>
    <connection from="kiri_ke_tengah" to="tengah_ke_bawah" fromLane="0" toLane="0" via=":titik_tengah_18_0" tl="gneJ10" linkIndex="18" dir="r" state="o"/>
    <connection from="kiri_ke_tengah" to="tengah_ke_bawah" fromLane="0" toLane="1" via=":titik_tengah_19_0" tl="gneJ10" linkIndex="19" dir="r" state="o"/>
    <connection from="kiri_ke_tengah" to="tengah_ke_kanan" fromLane="0" toLane="0" via=":titik_tengah_20_0" tl="gneJ10" linkIndex="20" dir="s" state="o"/>
    <connection from="kiri_ke_tengah" to="tengah_ke_kanan" fromLane="1" toLane="1" via=":titik_tengah_20_1" tl="gneJ10" linkIndex="21" dir="s" state="o"/>
    <connection from="kiri_ke_tengah" to="tengah_ke_atas" fromLane="1" toLane="0" via=":titik_tengah_22_0" tl="gneJ10" linkIndex="22" dir="l" state="o"/>
    <connection from="kiri_ke_tengah" to="tengah_ke_atas" fromLane="1" toLane="1" via=":titik_tengah_23_0" tl="gneJ10" linkIndex="23" dir="l" state="o"/>

    <connection from=":titik_tengah_0" to="tengah_ke_kiri" fromLane="0" toLane="0" dir="r" state="M"/>
    <connection from=":titik_tengah_1" to="tengah_ke_kiri" fromLane="0" toLane="1" dir="r" state="M"/>
    <connection from=":titik_tengah_2" to="tengah_ke_bawah" fromLane="0" toLane="0" dir="s" state="M"/>
    <connection from=":titik_tengah_2" to="tengah_ke_bawah" fromLane="1" toLane="1" dir="s" state="M"/>
    <connection from=":titik_tengah_4" to="tengah_ke_kanan" fromLane="0" toLane="0" dir="l" state="M"/>
    <connection from=":titik_tengah_5" to="tengah_ke_kanan" fromLane="0" toLane="1" dir="l" state="M"/>
    <connection from=":titik_tengah_6" to="tengah_ke_atas" fromLane="0" toLane="0" dir="r" state="M"/>
    <connection from=":titik_tengah_7" to="tengah_ke_atas" fromLane="0" toLane="1" dir="r" state="M"/>
    <connection from=":titik_tengah_8" to="tengah_ke_kiri" fromLane="0" toLane="0" dir="s" state="M"/>
    <connection from=":titik_tengah_8" to="tengah_ke_kiri" fromLane="1" toLane="1" dir="s" state="M"/>
    <connection from=":titik_tengah_10" to="tengah_ke_bawah" fromLane="0" toLane="0" dir="l" state="M"/>
    <connection from=":titik_tengah_11" to="tengah_ke_bawah" fromLane="0" toLane="1" dir="l" state="M"/>
    <connection from=":titik_tengah_12" to="tengah_ke_kanan" fromLane="0" toLane="0" dir="r" state="M"/>
    <connection from=":titik_tengah_13" to="tengah_ke_kanan" fromLane="0" toLane="1" dir="r" state="M"/>
    <connection from=":titik_tengah_14" to="tengah_ke_atas" fromLane="0" toLane="0" dir="s" state="M"/>
    <connection from=":titik_tengah_14" to="tengah_ke_atas" fromLane="1" toLane="1" dir="s" state="M"/>
    <connection from=":titik_tengah_16" to="tengah_ke_kiri" fromLane="0" toLane="0" dir="l" state="M"/>
    <connection from=":titik_tengah_17" to="tengah_ke_kiri" fromLane="0" toLane="1" dir="l" state="M"/>
    <connection from=":titik_tengah_18" to="tengah_ke_bawah" fromLane="0" toLane="0" dir="r" state="M"/>
    <connection from=":titik_tengah_19" to="tengah_ke_bawah" fromLane="0" toLane="1" dir="r" state="M"/>
    <connection from=":titik_tengah_20" to="tengah_ke_kanan" fromLane="0" toLane="0" dir="s" state="M"/>
    <connection from=":titik_tengah_20" to="tengah_ke_kanan" fromLane="1" toLane="1" dir="s" state="M"/>
    <connection from=":titik_tengah_22" to="tengah_ke_atas" fromLane="0" toLane="0" dir="l" state="M"/>
    <connection from=":titik_tengah_23" to="tengah_ke_atas" fromLane="0" toLane="1" dir="l" state="M"/>

</net>
