<routes>
            <vType id="car" accel="0.8" decel="4.5" sigma="0.5" length="5" minGap="2.5" maxSpeed="16.67"     guiShape="passenger"/>
            <vType id="bus" accel="0.8" decel="4.5" sigma="0.5" length="7" minGap="3" maxSpeed="25" guiShape="bus"/>

            <route id="left_right" edges="gneE4 gneE1"/>
            <route id="right_left" edges="gneE5 gneE0"/>
            <route id="left_down" edges="gneE4 gneE2"/>
            <route id="right_down" edges="gneE5 gneE2"/>
            <route id="down_left" edges="gneE6 gneE0"/>
            <route id="down_right" edges="gneE6 gneE1"/>
    <vehicle id="right_left_0" type="car" route="right_left" depart="1" />
    <vehicle id="right_left_1" type="car" route="right_left" depart="2" />
    <vehicle id="right_down_2" type="car" route="right_down" depart="4" />
    <vehicle id="down_left_3" type="car" route="down_left" depart="4" />
    <vehicle id="right_left_4" type="car" route="right_left" depart="6" />
    <vehicle id="right_left_5" type="car" route="right_left" depart="7" />
    <vehicle id="right_left_6" type="car" route="right_left" depart="8" />
    <vehicle id="down_right_7" type="car" route="down_right" depart="8" />
    <vehicle id="right_left_8" type="car" route="right_left" depart="9" />
    <vehicle id="right_left_9" type="car" route="right_left" depart="10" />
    <vehicle id="down_right_10" type="car" route="down_right" depart="10" />
    <vehicle id="right_left_11" type="car" route="right_left" depart="11" />
    <vehicle id="left_down_12" type="car" route="left_down" depart="12" />
    <vehicle id="left_right_13" type="car" route="left_right" depart="13" />
    <vehicle id="left_right_14" type="car" route="left_right" depart="14" />
    <vehicle id="down_right_15" type="car" route="down_right" depart="14" />
    <vehicle id="right_left_16" type="car" route="right_left" depart="16" />
    <vehicle id="down_right_17" type="car" route="down_right" depart="16" />
    <vehicle id="left_right_18" type="car" route="left_right" depart="17" />
    <vehicle id="left_down_19" type="car" route="left_down" depart="17" />
    <vehicle id="right_down_20" type="car" route="right_down" depart="17" />
    <vehicle id="down_left_21" type="car" route="down_left" depart="17" />
    <vehicle id="left_right_22" type="car" route="left_right" depart="20" />
    <vehicle id="right_left_23" type="car" route="right_left" depart="20" />
    <vehicle id="left_down_24" type="car" route="left_down" depart="22" />
    <vehicle id="left_right_25" type="car" route="left_right" depart="24" />
    <vehicle id="left_down_26" type="car" route="left_down" depart="24" />
    <vehicle id="down_right_27" type="car" route="down_right" depart="24" />
    <vehicle id="right_left_28" type="car" route="right_left" depart="27" />
    <vehicle id="left_right_29" type="car" route="left_right" depart="28" />
    <vehicle id="left_down_30" type="car" route="left_down" depart="28" />
    <vehicle id="right_down_31" type="car" route="right_down" depart="28" />
    <vehicle id="down_left_32" type="car" route="down_left" depart="32" />
    <vehicle id="right_left_33" type="car" route="right_left" depart="33" />
    <vehicle id="right_left_34" type="car" route="right_left" depart="34" />
    <vehicle id="right_down_35" type="car" route="right_down" depart="34" />
    <vehicle id="left_right_36" type="car" route="left_right" depart="35" />
    <vehicle id="left_down_37" type="car" route="left_down" depart="36" />
    <vehicle id="down_right_38" type="car" route="down_right" depart="37" />
    <vehicle id="right_left_39" type="car" route="right_left" depart="38" />
    <vehicle id="left_right_40" type="car" route="left_right" depart="39" />
    <vehicle id="right_left_41" type="car" route="right_left" depart="39" />
    <vehicle id="down_right_42" type="car" route="down_right" depart="39" />
    <vehicle id="left_right_43" type="car" route="left_right" depart="41" />
    <vehicle id="left_right_44" type="car" route="left_right" depart="42" />
    <vehicle id="left_right_45" type="car" route="left_right" depart="43" />
    <vehicle id="down_right_46" type="car" route="down_right" depart="44" />
    <vehicle id="left_right_47" type="car" route="left_right" depart="45" />
    <vehicle id="right_down_48" type="car" route="right_down" depart="45" />
    <vehicle id="right_left_49" type="car" route="right_left" depart="46" />
    <vehicle id="right_down_50" type="car" route="right_down" depart="46" />
    <vehicle id="right_left_51" type="car" route="right_left" depart="47" />
    <vehicle id="right_down_52" type="car" route="right_down" depart="49" />
    <vehicle id="down_right_53" type="car" route="down_right" depart="49" />
    <vehicle id="left_right_54" type="car" route="left_right" depart="50" />
    <vehicle id="down_right_55" type="car" route="down_right" depart="51" />
    <vehicle id="left_right_56" type="car" route="left_right" depart="52" />
    <vehicle id="right_down_57" type="car" route="right_down" depart="52" />
    <vehicle id="left_down_58" type="car" route="left_down" depart="54" />
    <vehicle id="down_left_59" type="car" route="down_left" depart="54" />
    <vehicle id="left_right_60" type="car" route="left_right" depart="56" />
    <vehicle id="right_left_61" type="car" route="right_left" depart="56" />
    <vehicle id="down_left_62" type="car" route="down_left" depart="57" />
    <vehicle id="down_right_63" type="car" route="down_right" depart="57" />
    <vehicle id="left_right_64" type="car" route="left_right" depart="58" />
    <vehicle id="right_left_65" type="car" route="right_left" depart="58" />
    <vehicle id="down_left_66" type="car" route="down_left" depart="58" />
    <vehicle id="left_right_67" type="car" route="left_right" depart="59" />
    <vehicle id="left_right_68" type="car" route="left_right" depart="60" />
    <vehicle id="down_left_69" type="car" route="down_left" depart="60" />
    <vehicle id="right_down_70" type="car" route="right_down" depart="61" />
    <vehicle id="right_left_71" type="car" route="right_left" depart="62" />
    <vehicle id="left_down_72" type="car" route="left_down" depart="62" />
    <vehicle id="down_right_73" type="car" route="down_right" depart="62" />
    <vehicle id="left_right_74" type="car" route="left_right" depart="63" />
    <vehicle id="right_down_75" type="car" route="right_down" depart="66" />
    <vehicle id="left_right_76" type="car" route="left_right" depart="67" />
    <vehicle id="left_down_77" type="car" route="left_down" depart="67" />
    <vehicle id="right_left_78" type="car" route="right_left" depart="71" />
    <vehicle id="right_left_79" type="car" route="right_left" depart="74" />
    <vehicle id="left_down_80" type="car" route="left_down" depart="74" />
    <vehicle id="left_right_81" type="car" route="left_right" depart="76" />
    <vehicle id="right_left_82" type="car" route="right_left" depart="76" />
    <vehicle id="left_right_83" type="car" route="left_right" depart="79" />
    <vehicle id="right_left_84" type="car" route="right_left" depart="79" />
    <vehicle id="down_right_85" type="car" route="down_right" depart="80" />
    <vehicle id="down_left_86" type="car" route="down_left" depart="81" />
    <vehicle id="left_down_87" type="car" route="left_down" depart="82" />
    <vehicle id="down_right_88" type="car" route="down_right" depart="82" />
    <vehicle id="left_down_89" type="car" route="left_down" depart="83" />
    <vehicle id="down_left_90" type="car" route="down_left" depart="83" />
    <vehicle id="down_right_91" type="car" route="down_right" depart="83" />
    <vehicle id="down_left_92" type="car" route="down_left" depart="84" />
    <vehicle id="down_left_93" type="car" route="down_left" depart="85" />
    <vehicle id="left_right_94" type="car" route="left_right" depart="87" />
    <vehicle id="right_left_95" type="car" route="right_left" depart="88" />
    <vehicle id="left_right_96" type="car" route="left_right" depart="89" />
    <vehicle id="down_left_97" type="car" route="down_left" depart="89" />
    <vehicle id="right_left_98" type="car" route="right_left" depart="90" />
    <vehicle id="left_right_99" type="car" route="left_right" depart="91" />
    <vehicle id="left_down_100" type="car" route="left_down" depart="91" />
    <vehicle id="down_left_101" type="car" route="down_left" depart="91" />
    <vehicle id="left_right_102" type="car" route="left_right" depart="93" />
    <vehicle id="left_down_103" type="car" route="left_down" depart="95" />
    <vehicle id="left_down_104" type="car" route="left_down" depart="96" />
    <vehicle id="left_right_105" type="car" route="left_right" depart="97" />
    <vehicle id="down_left_106" type="car" route="down_left" depart="97" />
    <vehicle id="left_right_107" type="car" route="left_right" depart="98" />
    <vehicle id="left_right_108" type="car" route="left_right" depart="101" />
    <vehicle id="right_left_109" type="car" route="right_left" depart="102" />
    <vehicle id="right_left_110" type="car" route="right_left" depart="107" />
    <vehicle id="left_down_111" type="car" route="left_down" depart="108" />
    <vehicle id="right_down_112" type="car" route="right_down" depart="108" />
    <vehicle id="left_down_113" type="car" route="left_down" depart="111" />
    <vehicle id="down_right_114" type="car" route="down_right" depart="111" />
    <vehicle id="right_down_115" type="car" route="right_down" depart="112" />
    <vehicle id="down_left_116" type="car" route="down_left" depart="112" />
    <vehicle id="right_left_117" type="car" route="right_left" depart="113" />
    <vehicle id="right_down_118" type="car" route="right_down" depart="113" />
    <vehicle id="left_down_119" type="car" route="left_down" depart="114" />
    <vehicle id="right_left_120" type="car" route="right_left" depart="116" />
    <vehicle id="right_left_121" type="car" route="right_left" depart="117" />
    <vehicle id="right_left_122" type="car" route="right_left" depart="118" />
    <vehicle id="down_left_123" type="car" route="down_left" depart="118" />
    <vehicle id="right_left_124" type="car" route="right_left" depart="120" />
    <vehicle id="left_right_125" type="car" route="left_right" depart="121" />
    <vehicle id="left_right_126" type="car" route="left_right" depart="122" />
    <vehicle id="left_right_127" type="car" route="left_right" depart="123" />
    <vehicle id="left_right_128" type="car" route="left_right" depart="124" />
    <vehicle id="down_right_129" type="car" route="down_right" depart="124" />
    <vehicle id="down_left_130" type="car" route="down_left" depart="127" />
    <vehicle id="right_left_131" type="car" route="right_left" depart="128" />
    <vehicle id="down_right_132" type="car" route="down_right" depart="128" />
    <vehicle id="right_left_133" type="car" route="right_left" depart="130" />
    <vehicle id="left_down_134" type="car" route="left_down" depart="130" />
    <vehicle id="down_right_135" type="car" route="down_right" depart="130" />
    <vehicle id="left_down_136" type="car" route="left_down" depart="131" />
    <vehicle id="right_left_137" type="car" route="right_left" depart="132" />
    <vehicle id="right_left_138" type="car" route="right_left" depart="133" />
    <vehicle id="down_right_139" type="car" route="down_right" depart="134" />
    <vehicle id="right_down_140" type="car" route="right_down" depart="137" />
    <vehicle id="left_right_141" type="car" route="left_right" depart="139" />
    <vehicle id="right_left_142" type="car" route="right_left" depart="139" />
    <vehicle id="left_right_143" type="car" route="left_right" depart="140" />
    <vehicle id="right_left_144" type="car" route="right_left" depart="140" />
    <vehicle id="right_down_145" type="car" route="right_down" depart="142" />
    <vehicle id="down_left_146" type="car" route="down_left" depart="142" />
    <vehicle id="right_left_147" type="car" route="right_left" depart="143" />
    <vehicle id="right_left_148" type="car" route="right_left" depart="144" />
    <vehicle id="left_down_149" type="car" route="left_down" depart="144" />
    <vehicle id="down_right_150" type="car" route="down_right" depart="144" />
    <vehicle id="right_down_151" type="car" route="right_down" depart="145" />
    <vehicle id="right_left_152" type="car" route="right_left" depart="147" />
    <vehicle id="right_down_153" type="car" route="right_down" depart="147" />
    <vehicle id="left_down_154" type="car" route="left_down" depart="148" />
    <vehicle id="right_left_155" type="car" route="right_left" depart="149" />
    <vehicle id="right_down_156" type="car" route="right_down" depart="149" />
    <vehicle id="right_left_157" type="car" route="right_left" depart="151" />
    <vehicle id="down_left_158" type="car" route="down_left" depart="151" />
    <vehicle id="left_right_159" type="car" route="left_right" depart="156" />
    <vehicle id="left_right_160" type="car" route="left_right" depart="157" />
    <vehicle id="right_left_161" type="car" route="right_left" depart="157" />
    <vehicle id="right_left_162" type="car" route="right_left" depart="158" />
    <vehicle id="left_right_163" type="car" route="left_right" depart="159" />
    <vehicle id="left_down_164" type="car" route="left_down" depart="159" />
    <vehicle id="down_left_165" type="car" route="down_left" depart="159" />
    <vehicle id="left_down_166" type="car" route="left_down" depart="161" />
    <vehicle id="right_left_167" type="car" route="right_left" depart="162" />
    <vehicle id="left_right_168" type="car" route="left_right" depart="163" />
    <vehicle id="right_left_169" type="car" route="right_left" depart="167" />
    <vehicle id="down_left_170" type="car" route="down_left" depart="167" />
    <vehicle id="left_right_171" type="car" route="left_right" depart="168" />
    <vehicle id="down_right_172" type="car" route="down_right" depart="168" />
    <vehicle id="left_right_173" type="car" route="left_right" depart="169" />
    <vehicle id="left_down_174" type="car" route="left_down" depart="170" />
    <vehicle id="right_left_175" type="car" route="right_left" depart="171" />
    <vehicle id="right_left_176" type="car" route="right_left" depart="173" />
    <vehicle id="left_right_177" type="car" route="left_right" depart="175" />
    <vehicle id="left_right_178" type="car" route="left_right" depart="176" />
    <vehicle id="left_right_179" type="car" route="left_right" depart="177" />
    <vehicle id="down_right_180" type="car" route="down_right" depart="179" />
    <vehicle id="down_right_181" type="car" route="down_right" depart="180" />
    <vehicle id="right_left_182" type="car" route="right_left" depart="181" />
    <vehicle id="down_left_183" type="car" route="down_left" depart="181" />
    <vehicle id="left_right_184" type="car" route="left_right" depart="183" />
    <vehicle id="right_left_185" type="car" route="right_left" depart="183" />
    <vehicle id="left_right_186" type="car" route="left_right" depart="184" />
    <vehicle id="down_right_187" type="car" route="down_right" depart="185" />
    <vehicle id="left_right_188" type="car" route="left_right" depart="186" />
    <vehicle id="left_down_189" type="car" route="left_down" depart="186" />
    <vehicle id="down_left_190" type="car" route="down_left" depart="187" />
    <vehicle id="left_right_191" type="car" route="left_right" depart="188" />
    <vehicle id="left_down_192" type="car" route="left_down" depart="188" />
    <vehicle id="left_right_193" type="car" route="left_right" depart="189" />
    <vehicle id="left_right_194" type="car" route="left_right" depart="191" />
    <vehicle id="right_down_195" type="car" route="right_down" depart="191" />
    <vehicle id="down_left_196" type="car" route="down_left" depart="193" />
    <vehicle id="down_right_197" type="car" route="down_right" depart="195" />
    <vehicle id="down_left_198" type="car" route="down_left" depart="196" />
    <vehicle id="left_right_199" type="car" route="left_right" depart="197" />
    <vehicle id="left_right_200" type="car" route="left_right" depart="198" />
    <vehicle id="right_left_201" type="car" route="right_left" depart="198" />
    <vehicle id="right_left_202" type="car" route="right_left" depart="199" />
</routes>
